Circuit: * E:\code\github\variableload\simulation\simulation.asc

Direct Newton iteration failed to find .op point.  (Use ".option noopiter" to skip.)
Starting Gmin stepping
Gmin = 10
Gmin = 1.07374
Gmin = 0.115292
Gmin = 0.0123794
Gmin = 0.00132923
Gmin = 0.000142725
Gmin = 1.5325e-05
Gmin = 1.6455e-06
Gmin = 1.76685e-07
Gmin = 1.89714e-08
Gmin = 2.03704e-09
Gmin = 2.18725e-10
Gmin = 2.34854e-11
Gmin = 2.52173e-12
Gmin = 2.70769e-13
Gmin = 0
Gmin stepping succeeded in finding the operating point.


Date: Sun May 10 19:33:20 2020
Total elapsed time: 77.069 seconds.

tnom = 27
temp = 27
method = modified trap
totiter = 4331412
traniter = 4330919
tranpoints = 2163211
accept = 1822391
rejected = 340820
matrix size = 64
fillins = 60
solver = Normal
Thread vector: 13.7/9.2[3] 5.9/4.6[3] 2.6/2.8[1] 0.4/0.9[1]  2592/500
Matrix Compiler1: 6.17 KB object code size  1.7/0.9/[0.4]
Matrix Compiler2: 6.41 KB object code size  0.7/1.2/[0.6]

